32
-7.6917584333514310e+02 frame 3   xyz file generated by TeraChem
     C    -1.4428798894    0.0000672743   -0.0393867178
     C     1.4370211660    0.0000256163   -0.0485878179
     C     0.7378589533    1.2487362015   -0.0465778116
     C    -0.7436762571    1.2487604493   -0.0419983663
     C     0.7378143614   -1.2486482813   -0.0466312969
     C    -0.7437050207   -1.2486455260   -0.0418439643
     C    -2.8669881092    0.0000956743   -0.0347303762
     C     2.8611318309   -0.0000547140   -0.0526863029
     C     1.4704491535    2.4199153794   -0.0489785928
     C     1.4703693978   -2.4198525064   -0.0492636819
     C    -1.4762227533    2.4199766983   -0.0399554745
     C    -1.4762279679   -2.4198757947   -0.0394747768
     C    -3.5691812600   -1.2317083908   -0.0323632311
     C    -3.5693764136    1.2317881792   -0.0326548729
     C     3.5634126331   -1.2318052746   -0.0550141425
     C     3.5635446902    1.2316124105   -0.0548242708
     C     2.8786461042    2.4162028190   -0.0530464754
     C     2.8785701993   -2.4164294182   -0.0534110918
     C    -2.8844192397    2.4163490588   -0.0353497314
     C    -2.8844195800   -2.4163824349   -0.0347885073
     H     0.9712322359    3.3826577820   -0.0476357298
     H     0.9710352837   -3.3825356561   -0.0480584997
     H    -0.9769589023    3.3826962098   -0.0419304841
     H    -0.9769040898   -3.3825668661   -0.0412396788
     H    -4.6563156668   -1.2158998889   -0.0288965100
     H    -4.6565162094    1.2159822200   -0.0292055143
     H     4.6505498299   -1.2160003418   -0.0579633057
     H     4.6506843619    1.2157628985   -0.0577544788
     H     3.4109404012    3.3632631525   -0.0547809332
     H     3.4107936262   -3.3635337779   -0.0553264421
     H    -3.4166579520    3.3634418846   -0.0339127862
     H    -3.4166859138   -3.3634633810   -0.0330946766
