30
-6.9295105784045677e+02 frame 7   xyz file generated by TeraChem
     C     0.0000126329    0.7197420142    0.0000053763
     C     0.0000075306   -0.7197349382    0.0000079466
     C    -2.4415793685    0.7213079213   -0.0000109788
     C    -2.4415909092   -0.7212960474   -0.0000084172
     C     2.4416460818    0.7213149784    0.0000217262
     C     2.4416369490   -0.7213156765    0.0000243017
     C     1.2340648849    1.4011065914    0.0000124192
     C     1.2340557147   -1.4011067893    0.0000174629
     C    -1.2340243164    1.4011431998   -0.0000041446
     C    -1.2340339053   -1.4011281761    0.0000008937
     C    -3.7060075184    1.4073969052   -0.0000207492
     C    -3.7060265394   -1.4073755681   -0.0000157132
     C     3.7060182760    1.4075118206    0.0000290120
     C     3.7060018972   -1.4075219287    0.0000340922
     C    -4.8757676625    0.7172577060   -0.0000273303
     C    -4.8758314910   -0.7173154012   -0.0000247907
     C     4.8757361561    0.7173208222    0.0000381446
     C     4.8756736460   -0.7172493793    0.0000407132
     H     1.2334048911    2.4896434901    0.0000105327
     H     1.2333918623   -2.4896437935    0.0000193326
     H    -1.2333696961    2.4896801987   -0.0000060108
     H    -1.2333821374   -2.4896651301    0.0000027712
     H    -3.7025074410    2.4949748234   -0.0000224970
     H    -3.7024997607   -2.4949520156   -0.0000137684
     H     3.7025054373    2.4950932632    0.0000270427
     H     3.7025172535   -2.4951049135    0.0000358518
     H    -5.8250986938    1.2457174903   -0.0000345267
     H    -5.8251688585   -1.2457683591   -0.0000301232
     H     5.8250921409    1.2457346907    0.0000434859
     H     5.8250242698   -1.2456681949    0.0000479447
